<configuration>
    <input>
        <net-file value="my_network.net.xml"/>
        <route-files value="my_routes.rou.xml"/>
    </input>
    <time>
        <begin value="0"/>
        <end value="1000"/>
    </time>
    <output>
        <summary-output value="summary.xml"/>
    </output>
</configuration>
